*Heading
** Job name: 30x30NonLocal Model name: axiNotched
** Generated by: Abaqus/CAE 2021
*Preprint, echo=NO, model=NO, history=NO, contact=NO
**
** PARTS
**
*Part, name=Part-1
*Node
      1,   4.40380573,   4.59619427
      2,           9.,          6.5
      3,           9.,          20.
      4,   4.40380573,          20.
      5,           0.,          20.
      6, 5.07700548e-11,   4.59619427
      7,   6.17157269,   2.82842708
      8,           9.,           4.
      9,          2.5,           0.
     10,           0.,           0.
     11,           5.,           0.
     12,   4.52569532,    4.7149334
     13,   4.65065098,   4.83044147
     14,   4.77858782,   4.94263887
     15,   4.90941763,   5.05144882
     16,   5.04305077,   5.15679693
     17,   5.17939568,   5.25861025
     18,   5.31835938,   5.35682011
     19,    5.4598465,    5.4513588
     20,   5.60375929,   5.54216099
** ... 4631 like lines cut
*Element, type=CAX4T
  1,    1,   12,  447,  127
  2,   12,   13,  448,  447
  3,   13,   14,  449,  448
  4,   14,   15,  450,  449
  5,   15,   16,  451,  450
  6,   16,   17,  452,  451
  7,   17,   18,  453,  452
  8,   18,   19,  454,  453
  9,   19,   20,  455,  454
 10,   20,   21,  456,  455
 11,   21,   22,  457,  456
 12,   22,   23,  458,  457
 13,   23,   24,  459,  458
 14,   24,   25,  460,  459
 15,   25,   26,  461,  460
 16,   26,   27,  462,  461
 17,   27,   28,  463,  462
 18,   28,   29,  464,  463
 19,   29,   30,  465,  464
 20,   30,   31,  466,  465
** ... 4480 like lines cut
*Nset, nset=Set-34, generate
    1,  4651,     1
*Elset, elset=Set-34, generate
    1,  4500,     1
*Nset, nset=topBoundary1
   4,   5, 128, 129, 130, 131, 132, 133, 134, 135, 136, 137, 138, 139, 140, 141
 142, 143, 144, 145, 146, 147, 148, 149, 150, 151, 152, 153, 154, 155, 156
*Elset, elset=topBoundary1, generate
  930,  1800,    30
*Nset, nset=topBoundary2
  3,  4, 70, 71, 72, 73, 74, 75, 76, 77, 78, 79, 80, 81, 82, 83
 84, 85, 86, 87, 88, 89, 90, 91, 92, 93, 94, 95, 96, 97, 98
*Elset, elset=topBoundary2, generate
 871,  900,    1
** Section: Section-1
*Solid Section, elset=Set-34, material=Material-1
,
*End Part
**  
**
** ASSEMBLY
**
*Assembly, name=Assembly
**  
*Instance, name=Part-1-1, part=Part-1
*End Instance
**  
*Nset, nset=Set-1, instance=Part-1-1
   5,   6, 157, 158, 159, 160, 161, 162, 163, 164, 165, 166, 167, 168, 169, 170
 171, 172, 173, 174, 175, 176, 177, 178, 179, 180, 181, 182, 183, 184, 185
*Elset, elset=Set-1, instance=Part-1-1, generate
 1771,  1800,     1
*Nset, nset=Set-2, instance=Part-1-1
   6,  10, 331, 332, 333, 334, 335, 336, 337, 338, 339, 340, 341, 342, 343, 344
 345, 346, 347, 348, 349, 350, 351, 352, 353, 354, 355, 356, 357, 358, 359
*Elset, elset=Set-2, instance=Part-1-1, generate
 3571,  3600,     1
*Nset, nset=Set-3, instance=Part-1-1
   9,  10, 360, 361, 362, 363, 364, 365, 366, 367, 368, 369, 370, 371, 372, 373
 374, 375, 376, 377, 378, 379, 380, 381, 382, 383, 384, 385, 386, 387, 388
*Elset, elset=Set-3, instance=Part-1-1, generate
 2701,  3571,    30
*Nset, nset=Set-4, instance=Part-1-1
   9,  11, 389, 390, 391, 392, 393, 394, 395, 396, 397, 398, 399, 400, 401, 402
 403, 404, 405, 406, 407, 408, 409, 410, 411, 412, 413, 414, 415, 416, 417
*Elset, elset=Set-4, instance=Part-1-1, generate
 3630,  4500,    30
*Nset, nset=Set-5, instance=Part-1-1
   4,   5, 128, 129, 130, 131, 132, 133, 134, 135, 136, 137, 138, 139, 140, 141
 142, 143, 144, 145, 146, 147, 148, 149, 150, 151, 152, 153, 154, 155, 156
*Elset, elset=Set-5, instance=Part-1-1, generate
  930,  1800,    30
*Nset, nset=Set-6, instance=Part-1-1
  3,  4, 70, 71, 72, 73, 74, 75, 76, 77, 78, 79, 80, 81, 82, 83
 84, 85, 86, 87, 88, 89, 90, 91, 92, 93, 94, 95, 96, 97, 98
*Elset, elset=Set-6, instance=Part-1-1, generate
 871,  900,    1
*Nset, nset=Set-7, instance=Part-1-1
   5,   6, 157, 158, 159, 160, 161, 162, 163, 164, 165, 166, 167, 168, 169, 170
 171, 172, 173, 174, 175, 176, 177, 178, 179, 180, 181, 182, 183, 184, 185
*Elset, elset=Set-7, instance=Part-1-1, generate
 1771,  1800,     1
*Nset, nset=Set-8, instance=Part-1-1
   6,  10, 331, 332, 333, 334, 335, 336, 337, 338, 339, 340, 341, 342, 343, 344
 345, 346, 347, 348, 349, 350, 351, 352, 353, 354, 355, 356, 357, 358, 359
*Elset, elset=Set-8, instance=Part-1-1, generate
 3571,  3600,     1
*Nset, nset=Set-9, instance=Part-1-1
   9,  10, 360, 361, 362, 363, 364, 365, 366, 367, 368, 369, 370, 371, 372, 373
 374, 375, 376, 377, 378, 379, 380, 381, 382, 383, 384, 385, 386, 387, 388
*Elset, elset=Set-9, instance=Part-1-1, generate
 2701,  3571,    30
*Nset, nset=Set-10, instance=Part-1-1
   9,  11, 389, 390, 391, 392, 393, 394, 395, 396, 397, 398, 399, 400, 401, 402
 403, 404, 405, 406, 407, 408, 409, 410, 411, 412, 413, 414, 415, 416, 417
*Elset, elset=Set-10, instance=Part-1-1, generate
 3630,  4500,    30
*Nset, nset=Set-11, instance=Part-1-1
   4,   5, 128, 129, 130, 131, 132, 133, 134, 135, 136, 137, 138, 139, 140, 141
 142, 143, 144, 145, 146, 147, 148, 149, 150, 151, 152, 153, 154, 155, 156
*Elset, elset=Set-11, instance=Part-1-1, generate
  930,  1800,    30
*Nset, nset=Set-12, instance=Part-1-1
  3,  4, 70, 71, 72, 73, 74, 75, 76, 77, 78, 79, 80, 81, 82, 83
 84, 85, 86, 87, 88, 89, 90, 91, 92, 93, 94, 95, 96, 97, 98
*Elset, elset=Set-12, instance=Part-1-1, generate
 871,  900,    1
*End Assembly
** 
** MATERIALS
** 
*Material, name=Material-1
*Conductivity
1.,
*Density
2700.,
*Depvar
     23,
*Heat Generation
*User Material, constants=7
 400480.0,      0.3, 345, 200, 1.25e+06,1.0, 0.6325
** ----------------------------------------------------------------
** 
** STEP: Step-1
** 
*Step, name=Step-1, nlgeom=YES, inc=20000
*Coupled Temperature-displacement, creep=none, steady state
0.01, 1., 1e-5, 0.01
** 
** BOUNDARY CONDITIONS
** 
** Name: BC-1 Type: Symmetry/Antisymmetry/Encastre
*Boundary
Set-7, XSYMM
** Name: BC-2 Type: Symmetry/Antisymmetry/Encastre
*Boundary
Set-8, XSYMM
** Name: BC-3 Type: Symmetry/Antisymmetry/Encastre
*Boundary
Set-9, YSYMM
** Name: BC-4 Type: Symmetry/Antisymmetry/Encastre
*Boundary
Set-10, YSYMM
** Name: BC-5 Type: Displacement/Rotation
*Boundary
Set-11, 2, 2, 3.
** Name: BC-6 Type: Displacement/Rotation
*Boundary
Set-12, 2, 2, 3.
** 
** OUTPUT REQUESTS
** 
*Restart, write, frequency=0
** 
** FIELD OUTPUT: F-Output-2
** 
*Output, field, frequency=1
*Node Output
NT, 
*Element Output, directions=YES
SDV, 
** 
** FIELD OUTPUT: F-Output-1
** 
*Output, field, variable=PRESELECT, frequency=1
** 
** HISTORY OUTPUT: H-Output-2
** 
*Output, history
*Node Output, nset=Part-1-1.topBoundary1
RF1, RF2, RF3, RT
** 
** HISTORY OUTPUT: H-Output-3
** 
*Node Output, nset=Part-1-1.topBoundary2
RF1, RF2, RF3, RT
** 
** HISTORY OUTPUT: H-Output-1
** 
*Output, history, variable=PRESELECT
*End Step
